
---------- Begin Simulation Statistics ----------
sim_seconds                                  0.087988                       # Number of seconds simulated
sim_ticks                                 87987922000                       # Number of ticks simulated
final_tick                                87987922000                       # Number of ticks from beginning of simulation (restored from checkpoints and never reset)
sim_freq                                 1000000000000                       # Frequency of simulated ticks
host_inst_rate                                1075316                       # Simulator instruction rate (inst/s)
host_op_rate                                  1772092                       # Simulator op (including micro ops) rate (op/s)
host_tick_rate                             2126666923                       # Simulator tick rate (ticks/s)
host_mem_usage                                 660260                       # Number of bytes of host memory used
host_seconds                                    41.37                       # Real time elapsed on the host
sim_insts                                    44489710                       # Number of instructions simulated
sim_ops                                      73317856                       # Number of ops (including micro ops) simulated
system.voltage_domain.voltage                       1                       # Voltage in Volts
system.clk_domain.clock                          1000                       # Clock period in ticks
system.mem_ctrls.pwrStateResidencyTicks::UNDEFINED  87987922000                       # Cumulative time (in ticks) in various power states
system.mem_ctrls.bytes_read::cpu.inst           22720                       # Number of bytes read from this memory
system.mem_ctrls.bytes_read::cpu.data          450112                       # Number of bytes read from this memory
system.mem_ctrls.bytes_read::total             472832                       # Number of bytes read from this memory
system.mem_ctrls.bytes_inst_read::cpu.inst        22720                       # Number of instructions bytes read from this memory
system.mem_ctrls.bytes_inst_read::total         22720                       # Number of instructions bytes read from this memory
system.mem_ctrls.bytes_written::writebacks        51712                       # Number of bytes written to this memory
system.mem_ctrls.bytes_written::total           51712                       # Number of bytes written to this memory
system.mem_ctrls.num_reads::cpu.inst              355                       # Number of read requests responded to by this memory
system.mem_ctrls.num_reads::cpu.data             7033                       # Number of read requests responded to by this memory
system.mem_ctrls.num_reads::total                7388                       # Number of read requests responded to by this memory
system.mem_ctrls.num_writes::writebacks           808                       # Number of write requests responded to by this memory
system.mem_ctrls.num_writes::total                808                       # Number of write requests responded to by this memory
system.mem_ctrls.bw_read::cpu.inst             258217                       # Total read bandwidth from this memory (bytes/s)
system.mem_ctrls.bw_read::cpu.data            5115611                       # Total read bandwidth from this memory (bytes/s)
system.mem_ctrls.bw_read::total               5373828                       # Total read bandwidth from this memory (bytes/s)
system.mem_ctrls.bw_inst_read::cpu.inst        258217                       # Instruction read bandwidth from this memory (bytes/s)
system.mem_ctrls.bw_inst_read::total           258217                       # Instruction read bandwidth from this memory (bytes/s)
system.mem_ctrls.bw_write::writebacks          587717                       # Write bandwidth from this memory (bytes/s)
system.mem_ctrls.bw_write::total               587717                       # Write bandwidth from this memory (bytes/s)
system.mem_ctrls.bw_total::writebacks          587717                       # Total bandwidth to/from this memory (bytes/s)
system.mem_ctrls.bw_total::cpu.inst            258217                       # Total bandwidth to/from this memory (bytes/s)
system.mem_ctrls.bw_total::cpu.data           5115611                       # Total bandwidth to/from this memory (bytes/s)
system.mem_ctrls.bw_total::total              5961545                       # Total bandwidth to/from this memory (bytes/s)
system.pwrStateResidencyTicks::UNDEFINED  87987922000                       # Cumulative time (in ticks) in various power states
system.cpu_voltage_domain.voltage                   1                       # Voltage in Volts
system.cpu_clk_domain.clock                       500                       # Clock period in ticks
system.cpu.dtb.walker.pwrStateResidencyTicks::UNDEFINED  87987922000                       # Cumulative time (in ticks) in various power states
system.cpu.dtb.rdAccesses                    20877741                       # TLB accesses on read requests
system.cpu.dtb.wrAccesses                     5816541                       # TLB accesses on write requests
system.cpu.dtb.rdMisses                           166                       # TLB misses on read requests
system.cpu.dtb.wrMisses                           106                       # TLB misses on write requests
system.cpu.apic_clk_domain.clock                 8000                       # Clock period in ticks
system.cpu.interrupts.pwrStateResidencyTicks::UNDEFINED  87987922000                       # Cumulative time (in ticks) in various power states
system.cpu.itb.walker.pwrStateResidencyTicks::UNDEFINED  87987922000                       # Cumulative time (in ticks) in various power states
system.cpu.itb.rdAccesses                           0                       # TLB accesses on read requests
system.cpu.itb.wrAccesses                    59516900                       # TLB accesses on write requests
system.cpu.itb.rdMisses                             0                       # TLB misses on read requests
system.cpu.itb.wrMisses                            37                       # TLB misses on write requests
system.cpu.workload.numSyscalls                     9                       # Number of system calls
system.cpu.pwrStateResidencyTicks::ON     87987922000                       # Cumulative time (in ticks) in various power states
system.cpu.numCycles                        175975844                       # number of cpu cycles simulated
system.cpu.numWorkItemsStarted                      0                       # number of work items this cpu started
system.cpu.numWorkItemsCompleted                    0                       # number of work items this cpu completed
system.cpu.committedInsts                    44489710                       # Number of instructions committed
system.cpu.committedOps                      73317856                       # Number of ops (including micro ops) committed
system.cpu.num_int_alu_accesses              72795932                       # Number of integer alu accesses
system.cpu.num_fp_alu_accesses                   1959                       # Number of float alu accesses
system.cpu.num_vec_alu_accesses                     0                       # Number of vector alu accesses
system.cpu.num_func_calls                      944900                       # number of times a function call or return occured
system.cpu.num_conditional_control_insts      4232453                       # number of instructions that are conditional controls
system.cpu.num_int_insts                     72795932                       # number of integer instructions
system.cpu.num_fp_insts                          1959                       # number of float instructions
system.cpu.num_vec_insts                            0                       # number of vector instructions
system.cpu.num_int_register_reads           163691591                       # number of times the integer registers were read
system.cpu.num_int_register_writes           63586406                       # number of times the integer registers were written
system.cpu.num_fp_register_reads                 3779                       # number of times the floating registers were read
system.cpu.num_fp_register_writes                1484                       # number of times the floating registers were written
system.cpu.num_vec_register_reads                   0                       # number of times the vector registers were read
system.cpu.num_vec_register_writes                  0                       # number of times the vector registers were written
system.cpu.num_cc_register_reads             27636620                       # number of times the CC registers were read
system.cpu.num_cc_register_writes            24933073                       # number of times the CC registers were written
system.cpu.num_mem_refs                      26694277                       # number of memory refs
system.cpu.num_load_insts                    20877737                       # Number of load instructions
system.cpu.num_store_insts                    5816540                       # Number of store instructions
system.cpu.num_idle_cycles                          0                       # Number of idle cycles
system.cpu.num_busy_cycles                  175975844                       # Number of busy cycles
system.cpu.not_idle_fraction                        1                       # Percentage of non-idle cycles
system.cpu.idle_fraction                            0                       # Percentage of idle cycles
system.cpu.Branches                           5574737                       # Number of branches fetched
system.cpu.op_class::No_OpClass                175846      0.24%      0.24% # Class of executed instruction
system.cpu.op_class::IntAlu                  45443775     61.98%     62.22% # Class of executed instruction
system.cpu.op_class::IntMult                        4      0.00%     62.22% # Class of executed instruction
system.cpu.op_class::IntDiv                   1002994      1.37%     63.59% # Class of executed instruction
system.cpu.op_class::FloatAdd                      10      0.00%     63.59% # Class of executed instruction
system.cpu.op_class::FloatCmp                       0      0.00%     63.59% # Class of executed instruction
system.cpu.op_class::FloatCvt                       0      0.00%     63.59% # Class of executed instruction
system.cpu.op_class::FloatMult                      0      0.00%     63.59% # Class of executed instruction
system.cpu.op_class::FloatMultAcc                   0      0.00%     63.59% # Class of executed instruction
system.cpu.op_class::FloatDiv                       0      0.00%     63.59% # Class of executed instruction
system.cpu.op_class::FloatMisc                      0      0.00%     63.59% # Class of executed instruction
system.cpu.op_class::FloatSqrt                      0      0.00%     63.59% # Class of executed instruction
system.cpu.op_class::SimdAdd                      374      0.00%     63.59% # Class of executed instruction
system.cpu.op_class::SimdAddAcc                     0      0.00%     63.59% # Class of executed instruction
system.cpu.op_class::SimdAlu                       68      0.00%     63.59% # Class of executed instruction
system.cpu.op_class::SimdCmp                        0      0.00%     63.59% # Class of executed instruction
system.cpu.op_class::SimdCvt                      108      0.00%     63.59% # Class of executed instruction
system.cpu.op_class::SimdMisc                     214      0.00%     63.59% # Class of executed instruction
system.cpu.op_class::SimdMult                       0      0.00%     63.59% # Class of executed instruction
system.cpu.op_class::SimdMultAcc                    0      0.00%     63.59% # Class of executed instruction
system.cpu.op_class::SimdShift                    186      0.00%     63.59% # Class of executed instruction
system.cpu.op_class::SimdShiftAcc                   0      0.00%     63.59% # Class of executed instruction
system.cpu.op_class::SimdSqrt                       0      0.00%     63.59% # Class of executed instruction
system.cpu.op_class::SimdFloatAdd                   0      0.00%     63.59% # Class of executed instruction
system.cpu.op_class::SimdFloatAlu                   0      0.00%     63.59% # Class of executed instruction
system.cpu.op_class::SimdFloatCmp                   0      0.00%     63.59% # Class of executed instruction
system.cpu.op_class::SimdFloatCvt                   0      0.00%     63.59% # Class of executed instruction
system.cpu.op_class::SimdFloatDiv                   0      0.00%     63.59% # Class of executed instruction
system.cpu.op_class::SimdFloatMisc                  0      0.00%     63.59% # Class of executed instruction
system.cpu.op_class::SimdFloatMult                  0      0.00%     63.59% # Class of executed instruction
system.cpu.op_class::SimdFloatMultAcc               0      0.00%     63.59% # Class of executed instruction
system.cpu.op_class::SimdFloatSqrt                  0      0.00%     63.59% # Class of executed instruction
system.cpu.op_class::MemRead                 20877677     28.48%     92.07% # Class of executed instruction
system.cpu.op_class::MemWrite                 5816113      7.93%    100.00% # Class of executed instruction
system.cpu.op_class::FloatMemRead                  60      0.00%    100.00% # Class of executed instruction
system.cpu.op_class::FloatMemWrite                427      0.00%    100.00% # Class of executed instruction
system.cpu.op_class::IprAccess                      0      0.00%    100.00% # Class of executed instruction
system.cpu.op_class::InstPrefetch                   0      0.00%    100.00% # Class of executed instruction
system.cpu.op_class::total                   73317856                       # Class of executed instruction
system.cpu.dcache.tags.pwrStateResidencyTicks::UNDEFINED  87987922000                       # Cumulative time (in ticks) in various power states
system.cpu.dcache.tags.tagsinuse           510.008876                       # Cycle average of tags in use
system.cpu.dcache.tags.total_refs            26694282                       # Total number of references to valid blocks.
system.cpu.dcache.tags.sampled_refs             45442                       # Sample count of references to valid blocks.
system.cpu.dcache.tags.avg_refs            587.436336                       # Average number of references to valid blocks.
system.cpu.dcache.tags.warmup_cycle            759000                       # Cycle when the warmup percentage was hit.
system.cpu.dcache.tags.occ_blocks::cpu.data   510.008876                       # Average occupied blocks per requestor
system.cpu.dcache.tags.occ_percent::cpu.data     0.996111                       # Average percentage of cache occupancy
system.cpu.dcache.tags.occ_percent::total     0.996111                       # Average percentage of cache occupancy
system.cpu.dcache.tags.occ_task_id_blocks::1024          512                       # Occupied blocks per task id
system.cpu.dcache.tags.age_task_id_blocks_1024::0           11                       # Occupied blocks per task id
system.cpu.dcache.tags.age_task_id_blocks_1024::1           15                       # Occupied blocks per task id
system.cpu.dcache.tags.age_task_id_blocks_1024::2           34                       # Occupied blocks per task id
system.cpu.dcache.tags.age_task_id_blocks_1024::3          451                       # Occupied blocks per task id
system.cpu.dcache.tags.age_task_id_blocks_1024::4            1                       # Occupied blocks per task id
system.cpu.dcache.tags.occ_task_id_percent::1024            1                       # Percentage of cache occupancy per task id
system.cpu.dcache.tags.tag_accesses          53434006                       # Number of tag accesses
system.cpu.dcache.tags.data_accesses         53434006                       # Number of data accesses
system.cpu.dcache.pwrStateResidencyTicks::UNDEFINED  87987922000                       # Cumulative time (in ticks) in various power states
system.cpu.dcache.ReadReq_hits::cpu.data     20839002                       # number of ReadReq hits
system.cpu.dcache.ReadReq_hits::total        20839002                       # number of ReadReq hits
system.cpu.dcache.WriteReq_hits::cpu.data      5794358                       # number of WriteReq hits
system.cpu.dcache.WriteReq_hits::total        5794358                       # number of WriteReq hits
system.cpu.dcache.demand_hits::cpu.data      26633360                       # number of demand (read+write) hits
system.cpu.dcache.demand_hits::total         26633360                       # number of demand (read+write) hits
system.cpu.dcache.overall_hits::cpu.data     26633360                       # number of overall hits
system.cpu.dcache.overall_hits::total        26633360                       # number of overall hits
system.cpu.dcache.ReadReq_misses::cpu.data        38739                       # number of ReadReq misses
system.cpu.dcache.ReadReq_misses::total         38739                       # number of ReadReq misses
system.cpu.dcache.WriteReq_misses::cpu.data        22183                       # number of WriteReq misses
system.cpu.dcache.WriteReq_misses::total        22183                       # number of WriteReq misses
system.cpu.dcache.demand_misses::cpu.data        60922                       # number of demand (read+write) misses
system.cpu.dcache.demand_misses::total          60922                       # number of demand (read+write) misses
system.cpu.dcache.overall_misses::cpu.data        60922                       # number of overall misses
system.cpu.dcache.overall_misses::total         60922                       # number of overall misses
system.cpu.dcache.ReadReq_miss_latency::cpu.data   1036321000                       # number of ReadReq miss cycles
system.cpu.dcache.ReadReq_miss_latency::total   1036321000                       # number of ReadReq miss cycles
system.cpu.dcache.WriteReq_miss_latency::cpu.data    740649500                       # number of WriteReq miss cycles
system.cpu.dcache.WriteReq_miss_latency::total    740649500                       # number of WriteReq miss cycles
system.cpu.dcache.demand_miss_latency::cpu.data   1776970500                       # number of demand (read+write) miss cycles
system.cpu.dcache.demand_miss_latency::total   1776970500                       # number of demand (read+write) miss cycles
system.cpu.dcache.overall_miss_latency::cpu.data   1776970500                       # number of overall miss cycles
system.cpu.dcache.overall_miss_latency::total   1776970500                       # number of overall miss cycles
system.cpu.dcache.ReadReq_accesses::cpu.data     20877741                       # number of ReadReq accesses(hits+misses)
system.cpu.dcache.ReadReq_accesses::total     20877741                       # number of ReadReq accesses(hits+misses)
system.cpu.dcache.WriteReq_accesses::cpu.data      5816541                       # number of WriteReq accesses(hits+misses)
system.cpu.dcache.WriteReq_accesses::total      5816541                       # number of WriteReq accesses(hits+misses)
system.cpu.dcache.demand_accesses::cpu.data     26694282                       # number of demand (read+write) accesses
system.cpu.dcache.demand_accesses::total     26694282                       # number of demand (read+write) accesses
system.cpu.dcache.overall_accesses::cpu.data     26694282                       # number of overall (read+write) accesses
system.cpu.dcache.overall_accesses::total     26694282                       # number of overall (read+write) accesses
system.cpu.dcache.ReadReq_miss_rate::cpu.data     0.001856                       # miss rate for ReadReq accesses
system.cpu.dcache.ReadReq_miss_rate::total     0.001856                       # miss rate for ReadReq accesses
system.cpu.dcache.WriteReq_miss_rate::cpu.data     0.003814                       # miss rate for WriteReq accesses
system.cpu.dcache.WriteReq_miss_rate::total     0.003814                       # miss rate for WriteReq accesses
system.cpu.dcache.demand_miss_rate::cpu.data     0.002282                       # miss rate for demand accesses
system.cpu.dcache.demand_miss_rate::total     0.002282                       # miss rate for demand accesses
system.cpu.dcache.overall_miss_rate::cpu.data     0.002282                       # miss rate for overall accesses
system.cpu.dcache.overall_miss_rate::total     0.002282                       # miss rate for overall accesses
system.cpu.dcache.ReadReq_avg_miss_latency::cpu.data 26751.361677                       # average ReadReq miss latency
system.cpu.dcache.ReadReq_avg_miss_latency::total 26751.361677                       # average ReadReq miss latency
system.cpu.dcache.WriteReq_avg_miss_latency::cpu.data 33388.157598                       # average WriteReq miss latency
system.cpu.dcache.WriteReq_avg_miss_latency::total 33388.157598                       # average WriteReq miss latency
system.cpu.dcache.demand_avg_miss_latency::cpu.data 29167.960671                       # average overall miss latency
system.cpu.dcache.demand_avg_miss_latency::total 29167.960671                       # average overall miss latency
system.cpu.dcache.overall_avg_miss_latency::cpu.data 29167.960671                       # average overall miss latency
system.cpu.dcache.overall_avg_miss_latency::total 29167.960671                       # average overall miss latency
system.cpu.dcache.blocked_cycles::no_mshrs            0                       # number of cycles access was blocked
system.cpu.dcache.blocked_cycles::no_targets            0                       # number of cycles access was blocked
system.cpu.dcache.blocked::no_mshrs                 0                       # number of cycles access was blocked
system.cpu.dcache.blocked::no_targets               0                       # number of cycles access was blocked
system.cpu.dcache.avg_blocked_cycles::no_mshrs          nan                       # average number of cycles each access was blocked
system.cpu.dcache.avg_blocked_cycles::no_targets          nan                       # average number of cycles each access was blocked
system.cpu.dcache.writebacks::writebacks        43606                       # number of writebacks
system.cpu.dcache.writebacks::total             43606                       # number of writebacks
system.cpu.dcache.ReadReq_mshr_misses::cpu.data        38739                       # number of ReadReq MSHR misses
system.cpu.dcache.ReadReq_mshr_misses::total        38739                       # number of ReadReq MSHR misses
system.cpu.dcache.WriteReq_mshr_misses::cpu.data        22183                       # number of WriteReq MSHR misses
system.cpu.dcache.WriteReq_mshr_misses::total        22183                       # number of WriteReq MSHR misses
system.cpu.dcache.demand_mshr_misses::cpu.data        60922                       # number of demand (read+write) MSHR misses
system.cpu.dcache.demand_mshr_misses::total        60922                       # number of demand (read+write) MSHR misses
system.cpu.dcache.overall_mshr_misses::cpu.data        60922                       # number of overall MSHR misses
system.cpu.dcache.overall_mshr_misses::total        60922                       # number of overall MSHR misses
system.cpu.dcache.ReadReq_mshr_miss_latency::cpu.data    997582000                       # number of ReadReq MSHR miss cycles
system.cpu.dcache.ReadReq_mshr_miss_latency::total    997582000                       # number of ReadReq MSHR miss cycles
system.cpu.dcache.WriteReq_mshr_miss_latency::cpu.data    718466500                       # number of WriteReq MSHR miss cycles
system.cpu.dcache.WriteReq_mshr_miss_latency::total    718466500                       # number of WriteReq MSHR miss cycles
system.cpu.dcache.demand_mshr_miss_latency::cpu.data   1716048500                       # number of demand (read+write) MSHR miss cycles
system.cpu.dcache.demand_mshr_miss_latency::total   1716048500                       # number of demand (read+write) MSHR miss cycles
system.cpu.dcache.overall_mshr_miss_latency::cpu.data   1716048500                       # number of overall MSHR miss cycles
system.cpu.dcache.overall_mshr_miss_latency::total   1716048500                       # number of overall MSHR miss cycles
system.cpu.dcache.ReadReq_mshr_miss_rate::cpu.data     0.001856                       # mshr miss rate for ReadReq accesses
system.cpu.dcache.ReadReq_mshr_miss_rate::total     0.001856                       # mshr miss rate for ReadReq accesses
system.cpu.dcache.WriteReq_mshr_miss_rate::cpu.data     0.003814                       # mshr miss rate for WriteReq accesses
system.cpu.dcache.WriteReq_mshr_miss_rate::total     0.003814                       # mshr miss rate for WriteReq accesses
system.cpu.dcache.demand_mshr_miss_rate::cpu.data     0.002282                       # mshr miss rate for demand accesses
system.cpu.dcache.demand_mshr_miss_rate::total     0.002282                       # mshr miss rate for demand accesses
system.cpu.dcache.overall_mshr_miss_rate::cpu.data     0.002282                       # mshr miss rate for overall accesses
system.cpu.dcache.overall_mshr_miss_rate::total     0.002282                       # mshr miss rate for overall accesses
system.cpu.dcache.ReadReq_avg_mshr_miss_latency::cpu.data 25751.361677                       # average ReadReq mshr miss latency
system.cpu.dcache.ReadReq_avg_mshr_miss_latency::total 25751.361677                       # average ReadReq mshr miss latency
system.cpu.dcache.WriteReq_avg_mshr_miss_latency::cpu.data 32388.157598                       # average WriteReq mshr miss latency
system.cpu.dcache.WriteReq_avg_mshr_miss_latency::total 32388.157598                       # average WriteReq mshr miss latency
system.cpu.dcache.demand_avg_mshr_miss_latency::cpu.data 28167.960671                       # average overall mshr miss latency
system.cpu.dcache.demand_avg_mshr_miss_latency::total 28167.960671                       # average overall mshr miss latency
system.cpu.dcache.overall_avg_mshr_miss_latency::cpu.data 28167.960671                       # average overall mshr miss latency
system.cpu.dcache.overall_avg_mshr_miss_latency::total 28167.960671                       # average overall mshr miss latency
system.cpu.dcache.replacements                  44930                       # number of replacements
system.cpu.dtb_walker_cache.tags.pwrStateResidencyTicks::UNDEFINED  87987922000                       # Cumulative time (in ticks) in various power states
system.cpu.dtb_walker_cache.tags.tagsinuse            0                       # Cycle average of tags in use
system.cpu.dtb_walker_cache.tags.total_refs            0                       # Total number of references to valid blocks.
system.cpu.dtb_walker_cache.tags.sampled_refs            0                       # Sample count of references to valid blocks.
system.cpu.dtb_walker_cache.tags.avg_refs          nan                       # Average number of references to valid blocks.
system.cpu.dtb_walker_cache.tags.warmup_cycle            0                       # Cycle when the warmup percentage was hit.
system.cpu.dtb_walker_cache.tags.tag_accesses            0                       # Number of tag accesses
system.cpu.dtb_walker_cache.tags.data_accesses            0                       # Number of data accesses
system.cpu.dtb_walker_cache.pwrStateResidencyTicks::UNDEFINED  87987922000                       # Cumulative time (in ticks) in various power states
system.cpu.dtb_walker_cache.blocked_cycles::no_mshrs            0                       # number of cycles access was blocked
system.cpu.dtb_walker_cache.blocked_cycles::no_targets            0                       # number of cycles access was blocked
system.cpu.dtb_walker_cache.blocked::no_mshrs            0                       # number of cycles access was blocked
system.cpu.dtb_walker_cache.blocked::no_targets            0                       # number of cycles access was blocked
system.cpu.dtb_walker_cache.avg_blocked_cycles::no_mshrs          nan                       # average number of cycles each access was blocked
system.cpu.dtb_walker_cache.avg_blocked_cycles::no_targets          nan                       # average number of cycles each access was blocked
system.cpu.dtb_walker_cache.replacements            0                       # number of replacements
system.cpu.icache.tags.pwrStateResidencyTicks::UNDEFINED  87987922000                       # Cumulative time (in ticks) in various power states
system.cpu.icache.tags.tagsinuse           281.289814                       # Cycle average of tags in use
system.cpu.icache.tags.total_refs            59516900                       # Total number of references to valid blocks.
system.cpu.icache.tags.sampled_refs               355                       # Sample count of references to valid blocks.
system.cpu.icache.tags.avg_refs          167653.239437                       # Average number of references to valid blocks.
system.cpu.icache.tags.warmup_cycle            439000                       # Cycle when the warmup percentage was hit.
system.cpu.icache.tags.occ_blocks::cpu.inst   281.289814                       # Average occupied blocks per requestor
system.cpu.icache.tags.occ_percent::cpu.inst     0.549394                       # Average percentage of cache occupancy
system.cpu.icache.tags.occ_percent::total     0.549394                       # Average percentage of cache occupancy
system.cpu.icache.tags.occ_task_id_blocks::1024          311                       # Occupied blocks per task id
system.cpu.icache.tags.age_task_id_blocks_1024::0           19                       # Occupied blocks per task id
system.cpu.icache.tags.age_task_id_blocks_1024::1           19                       # Occupied blocks per task id
system.cpu.icache.tags.age_task_id_blocks_1024::4          273                       # Occupied blocks per task id
system.cpu.icache.tags.occ_task_id_percent::1024     0.607422                       # Percentage of cache occupancy per task id
system.cpu.icache.tags.tag_accesses         119034155                       # Number of tag accesses
system.cpu.icache.tags.data_accesses        119034155                       # Number of data accesses
system.cpu.icache.pwrStateResidencyTicks::UNDEFINED  87987922000                       # Cumulative time (in ticks) in various power states
system.cpu.icache.ReadReq_hits::cpu.inst     59516545                       # number of ReadReq hits
system.cpu.icache.ReadReq_hits::total        59516545                       # number of ReadReq hits
system.cpu.icache.demand_hits::cpu.inst      59516545                       # number of demand (read+write) hits
system.cpu.icache.demand_hits::total         59516545                       # number of demand (read+write) hits
system.cpu.icache.overall_hits::cpu.inst     59516545                       # number of overall hits
system.cpu.icache.overall_hits::total        59516545                       # number of overall hits
system.cpu.icache.ReadReq_misses::cpu.inst          355                       # number of ReadReq misses
system.cpu.icache.ReadReq_misses::total           355                       # number of ReadReq misses
system.cpu.icache.demand_misses::cpu.inst          355                       # number of demand (read+write) misses
system.cpu.icache.demand_misses::total            355                       # number of demand (read+write) misses
system.cpu.icache.overall_misses::cpu.inst          355                       # number of overall misses
system.cpu.icache.overall_misses::total           355                       # number of overall misses
system.cpu.icache.ReadReq_miss_latency::cpu.inst     61051000                       # number of ReadReq miss cycles
system.cpu.icache.ReadReq_miss_latency::total     61051000                       # number of ReadReq miss cycles
system.cpu.icache.demand_miss_latency::cpu.inst     61051000                       # number of demand (read+write) miss cycles
system.cpu.icache.demand_miss_latency::total     61051000                       # number of demand (read+write) miss cycles
system.cpu.icache.overall_miss_latency::cpu.inst     61051000                       # number of overall miss cycles
system.cpu.icache.overall_miss_latency::total     61051000                       # number of overall miss cycles
system.cpu.icache.ReadReq_accesses::cpu.inst     59516900                       # number of ReadReq accesses(hits+misses)
system.cpu.icache.ReadReq_accesses::total     59516900                       # number of ReadReq accesses(hits+misses)
system.cpu.icache.demand_accesses::cpu.inst     59516900                       # number of demand (read+write) accesses
system.cpu.icache.demand_accesses::total     59516900                       # number of demand (read+write) accesses
system.cpu.icache.overall_accesses::cpu.inst     59516900                       # number of overall (read+write) accesses
system.cpu.icache.overall_accesses::total     59516900                       # number of overall (read+write) accesses
system.cpu.icache.ReadReq_miss_rate::cpu.inst     0.000006                       # miss rate for ReadReq accesses
system.cpu.icache.ReadReq_miss_rate::total     0.000006                       # miss rate for ReadReq accesses
system.cpu.icache.demand_miss_rate::cpu.inst     0.000006                       # miss rate for demand accesses
system.cpu.icache.demand_miss_rate::total     0.000006                       # miss rate for demand accesses
system.cpu.icache.overall_miss_rate::cpu.inst     0.000006                       # miss rate for overall accesses
system.cpu.icache.overall_miss_rate::total     0.000006                       # miss rate for overall accesses
system.cpu.icache.ReadReq_avg_miss_latency::cpu.inst 171974.647887                       # average ReadReq miss latency
system.cpu.icache.ReadReq_avg_miss_latency::total 171974.647887                       # average ReadReq miss latency
system.cpu.icache.demand_avg_miss_latency::cpu.inst 171974.647887                       # average overall miss latency
system.cpu.icache.demand_avg_miss_latency::total 171974.647887                       # average overall miss latency
system.cpu.icache.overall_avg_miss_latency::cpu.inst 171974.647887                       # average overall miss latency
system.cpu.icache.overall_avg_miss_latency::total 171974.647887                       # average overall miss latency
system.cpu.icache.blocked_cycles::no_mshrs            0                       # number of cycles access was blocked
system.cpu.icache.blocked_cycles::no_targets            0                       # number of cycles access was blocked
system.cpu.icache.blocked::no_mshrs                 0                       # number of cycles access was blocked
system.cpu.icache.blocked::no_targets               0                       # number of cycles access was blocked
system.cpu.icache.avg_blocked_cycles::no_mshrs          nan                       # average number of cycles each access was blocked
system.cpu.icache.avg_blocked_cycles::no_targets          nan                       # average number of cycles each access was blocked
system.cpu.icache.writebacks::writebacks           44                       # number of writebacks
system.cpu.icache.writebacks::total                44                       # number of writebacks
system.cpu.icache.ReadReq_mshr_misses::cpu.inst          355                       # number of ReadReq MSHR misses
system.cpu.icache.ReadReq_mshr_misses::total          355                       # number of ReadReq MSHR misses
system.cpu.icache.demand_mshr_misses::cpu.inst          355                       # number of demand (read+write) MSHR misses
system.cpu.icache.demand_mshr_misses::total          355                       # number of demand (read+write) MSHR misses
system.cpu.icache.overall_mshr_misses::cpu.inst          355                       # number of overall MSHR misses
system.cpu.icache.overall_mshr_misses::total          355                       # number of overall MSHR misses
system.cpu.icache.ReadReq_mshr_miss_latency::cpu.inst     60696000                       # number of ReadReq MSHR miss cycles
system.cpu.icache.ReadReq_mshr_miss_latency::total     60696000                       # number of ReadReq MSHR miss cycles
system.cpu.icache.demand_mshr_miss_latency::cpu.inst     60696000                       # number of demand (read+write) MSHR miss cycles
system.cpu.icache.demand_mshr_miss_latency::total     60696000                       # number of demand (read+write) MSHR miss cycles
system.cpu.icache.overall_mshr_miss_latency::cpu.inst     60696000                       # number of overall MSHR miss cycles
system.cpu.icache.overall_mshr_miss_latency::total     60696000                       # number of overall MSHR miss cycles
system.cpu.icache.ReadReq_mshr_miss_rate::cpu.inst     0.000006                       # mshr miss rate for ReadReq accesses
system.cpu.icache.ReadReq_mshr_miss_rate::total     0.000006                       # mshr miss rate for ReadReq accesses
system.cpu.icache.demand_mshr_miss_rate::cpu.inst     0.000006                       # mshr miss rate for demand accesses
system.cpu.icache.demand_mshr_miss_rate::total     0.000006                       # mshr miss rate for demand accesses
system.cpu.icache.overall_mshr_miss_rate::cpu.inst     0.000006                       # mshr miss rate for overall accesses
system.cpu.icache.overall_mshr_miss_rate::total     0.000006                       # mshr miss rate for overall accesses
system.cpu.icache.ReadReq_avg_mshr_miss_latency::cpu.inst 170974.647887                       # average ReadReq mshr miss latency
system.cpu.icache.ReadReq_avg_mshr_miss_latency::total 170974.647887                       # average ReadReq mshr miss latency
system.cpu.icache.demand_avg_mshr_miss_latency::cpu.inst 170974.647887                       # average overall mshr miss latency
system.cpu.icache.demand_avg_mshr_miss_latency::total 170974.647887                       # average overall mshr miss latency
system.cpu.icache.overall_avg_mshr_miss_latency::cpu.inst 170974.647887                       # average overall mshr miss latency
system.cpu.icache.overall_avg_mshr_miss_latency::total 170974.647887                       # average overall mshr miss latency
system.cpu.icache.replacements                     44                       # number of replacements
system.cpu.itb_walker_cache.tags.pwrStateResidencyTicks::UNDEFINED  87987922000                       # Cumulative time (in ticks) in various power states
system.cpu.itb_walker_cache.tags.tagsinuse            0                       # Cycle average of tags in use
system.cpu.itb_walker_cache.tags.total_refs            0                       # Total number of references to valid blocks.
system.cpu.itb_walker_cache.tags.sampled_refs            0                       # Sample count of references to valid blocks.
system.cpu.itb_walker_cache.tags.avg_refs          nan                       # Average number of references to valid blocks.
system.cpu.itb_walker_cache.tags.warmup_cycle            0                       # Cycle when the warmup percentage was hit.
system.cpu.itb_walker_cache.tags.tag_accesses            0                       # Number of tag accesses
system.cpu.itb_walker_cache.tags.data_accesses            0                       # Number of data accesses
system.cpu.itb_walker_cache.pwrStateResidencyTicks::UNDEFINED  87987922000                       # Cumulative time (in ticks) in various power states
system.cpu.itb_walker_cache.blocked_cycles::no_mshrs            0                       # number of cycles access was blocked
system.cpu.itb_walker_cache.blocked_cycles::no_targets            0                       # number of cycles access was blocked
system.cpu.itb_walker_cache.blocked::no_mshrs            0                       # number of cycles access was blocked
system.cpu.itb_walker_cache.blocked::no_targets            0                       # number of cycles access was blocked
system.cpu.itb_walker_cache.avg_blocked_cycles::no_mshrs          nan                       # average number of cycles each access was blocked
system.cpu.itb_walker_cache.avg_blocked_cycles::no_targets          nan                       # average number of cycles each access was blocked
system.cpu.itb_walker_cache.replacements            0                       # number of replacements
system.l2.tags.pwrStateResidencyTicks::UNDEFINED  87987922000                       # Cumulative time (in ticks) in various power states
system.l2.tags.tagsinuse                  2019.046252                       # Cycle average of tags in use
system.l2.tags.total_refs                      106251                       # Total number of references to valid blocks.
system.l2.tags.sampled_refs                     24186                       # Sample count of references to valid blocks.
system.l2.tags.avg_refs                      4.393079                       # Average number of references to valid blocks.
system.l2.tags.warmup_cycle                    428500                       # Cycle when the warmup percentage was hit.
system.l2.tags.occ_blocks::writebacks        1.445726                       # Average occupied blocks per requestor
system.l2.tags.occ_blocks::cpu.inst         11.168678                       # Average occupied blocks per requestor
system.l2.tags.occ_blocks::cpu.data       2006.431848                       # Average occupied blocks per requestor
system.l2.tags.occ_percent::writebacks       0.000706                       # Average percentage of cache occupancy
system.l2.tags.occ_percent::cpu.inst         0.005453                       # Average percentage of cache occupancy
system.l2.tags.occ_percent::cpu.data         0.979703                       # Average percentage of cache occupancy
system.l2.tags.occ_percent::total            0.985862                       # Average percentage of cache occupancy
system.l2.tags.occ_task_id_blocks::1024          2048                       # Occupied blocks per task id
system.l2.tags.age_task_id_blocks_1024::0           36                       # Occupied blocks per task id
system.l2.tags.age_task_id_blocks_1024::1           36                       # Occupied blocks per task id
system.l2.tags.age_task_id_blocks_1024::2           33                       # Occupied blocks per task id
system.l2.tags.age_task_id_blocks_1024::3           58                       # Occupied blocks per task id
system.l2.tags.age_task_id_blocks_1024::4         1885                       # Occupied blocks per task id
system.l2.tags.occ_task_id_percent::1024            1                       # Percentage of cache occupancy per task id
system.l2.tags.tag_accesses                    874194                       # Number of tag accesses
system.l2.tags.data_accesses                   874194                       # Number of data accesses
system.l2.pwrStateResidencyTicks::UNDEFINED  87987922000                       # Cumulative time (in ticks) in various power states
system.l2.WritebackDirty_hits::writebacks        43606                       # number of WritebackDirty hits
system.l2.WritebackDirty_hits::total            43606                       # number of WritebackDirty hits
system.l2.WritebackClean_hits::writebacks           44                       # number of WritebackClean hits
system.l2.WritebackClean_hits::total               44                       # number of WritebackClean hits
system.l2.UpgradeReq_hits::cpu.data             15480                       # number of UpgradeReq hits
system.l2.UpgradeReq_hits::total                15480                       # number of UpgradeReq hits
system.l2.ReadExReq_hits::cpu.data                261                       # number of ReadExReq hits
system.l2.ReadExReq_hits::total                   261                       # number of ReadExReq hits
system.l2.ReadSharedReq_hits::cpu.data          21372                       # number of ReadSharedReq hits
system.l2.ReadSharedReq_hits::total             21372                       # number of ReadSharedReq hits
system.l2.demand_hits::cpu.data                 21633                       # number of demand (read+write) hits
system.l2.demand_hits::total                    21633                       # number of demand (read+write) hits
system.l2.overall_hits::cpu.data                21633                       # number of overall hits
system.l2.overall_hits::total                   21633                       # number of overall hits
system.l2.ReadExReq_misses::cpu.data             6442                       # number of ReadExReq misses
system.l2.ReadExReq_misses::total                6442                       # number of ReadExReq misses
system.l2.ReadCleanReq_misses::cpu.inst           355                       # number of ReadCleanReq misses
system.l2.ReadCleanReq_misses::total              355                       # number of ReadCleanReq misses
system.l2.ReadSharedReq_misses::cpu.data        17367                       # number of ReadSharedReq misses
system.l2.ReadSharedReq_misses::total           17367                       # number of ReadSharedReq misses
system.l2.demand_misses::cpu.inst                 355                       # number of demand (read+write) misses
system.l2.demand_misses::cpu.data               23809                       # number of demand (read+write) misses
system.l2.demand_misses::total                  24164                       # number of demand (read+write) misses
system.l2.overall_misses::cpu.inst                355                       # number of overall misses
system.l2.overall_misses::cpu.data              23809                       # number of overall misses
system.l2.overall_misses::total                 24164                       # number of overall misses
system.l2.ReadExReq_miss_latency::cpu.data    519911500                       # number of ReadExReq miss cycles
system.l2.ReadExReq_miss_latency::total     519911500                       # number of ReadExReq miss cycles
system.l2.ReadCleanReq_miss_latency::cpu.inst     60160500                       # number of ReadCleanReq miss cycles
system.l2.ReadCleanReq_miss_latency::total     60160500                       # number of ReadCleanReq miss cycles
system.l2.ReadSharedReq_miss_latency::cpu.data    715067500                       # number of ReadSharedReq miss cycles
system.l2.ReadSharedReq_miss_latency::total    715067500                       # number of ReadSharedReq miss cycles
system.l2.demand_miss_latency::cpu.inst      60160500                       # number of demand (read+write) miss cycles
system.l2.demand_miss_latency::cpu.data    1234979000                       # number of demand (read+write) miss cycles
system.l2.demand_miss_latency::total       1295139500                       # number of demand (read+write) miss cycles
system.l2.overall_miss_latency::cpu.inst     60160500                       # number of overall miss cycles
system.l2.overall_miss_latency::cpu.data   1234979000                       # number of overall miss cycles
system.l2.overall_miss_latency::total      1295139500                       # number of overall miss cycles
system.l2.WritebackDirty_accesses::writebacks        43606                       # number of WritebackDirty accesses(hits+misses)
system.l2.WritebackDirty_accesses::total        43606                       # number of WritebackDirty accesses(hits+misses)
system.l2.WritebackClean_accesses::writebacks           44                       # number of WritebackClean accesses(hits+misses)
system.l2.WritebackClean_accesses::total           44                       # number of WritebackClean accesses(hits+misses)
system.l2.UpgradeReq_accesses::cpu.data         15480                       # number of UpgradeReq accesses(hits+misses)
system.l2.UpgradeReq_accesses::total            15480                       # number of UpgradeReq accesses(hits+misses)
system.l2.ReadExReq_accesses::cpu.data           6703                       # number of ReadExReq accesses(hits+misses)
system.l2.ReadExReq_accesses::total              6703                       # number of ReadExReq accesses(hits+misses)
system.l2.ReadCleanReq_accesses::cpu.inst          355                       # number of ReadCleanReq accesses(hits+misses)
system.l2.ReadCleanReq_accesses::total            355                       # number of ReadCleanReq accesses(hits+misses)
system.l2.ReadSharedReq_accesses::cpu.data        38739                       # number of ReadSharedReq accesses(hits+misses)
system.l2.ReadSharedReq_accesses::total         38739                       # number of ReadSharedReq accesses(hits+misses)
system.l2.demand_accesses::cpu.inst               355                       # number of demand (read+write) accesses
system.l2.demand_accesses::cpu.data             45442                       # number of demand (read+write) accesses
system.l2.demand_accesses::total                45797                       # number of demand (read+write) accesses
system.l2.overall_accesses::cpu.inst              355                       # number of overall (read+write) accesses
system.l2.overall_accesses::cpu.data            45442                       # number of overall (read+write) accesses
system.l2.overall_accesses::total               45797                       # number of overall (read+write) accesses
system.l2.ReadExReq_miss_rate::cpu.data      0.961062                       # miss rate for ReadExReq accesses
system.l2.ReadExReq_miss_rate::total         0.961062                       # miss rate for ReadExReq accesses
system.l2.ReadCleanReq_miss_rate::cpu.inst            1                       # miss rate for ReadCleanReq accesses
system.l2.ReadCleanReq_miss_rate::total             1                       # miss rate for ReadCleanReq accesses
system.l2.ReadSharedReq_miss_rate::cpu.data     0.448308                       # miss rate for ReadSharedReq accesses
system.l2.ReadSharedReq_miss_rate::total     0.448308                       # miss rate for ReadSharedReq accesses
system.l2.demand_miss_rate::cpu.inst                1                       # miss rate for demand accesses
system.l2.demand_miss_rate::cpu.data         0.523943                       # miss rate for demand accesses
system.l2.demand_miss_rate::total            0.527633                       # miss rate for demand accesses
system.l2.overall_miss_rate::cpu.inst               1                       # miss rate for overall accesses
system.l2.overall_miss_rate::cpu.data        0.523943                       # miss rate for overall accesses
system.l2.overall_miss_rate::total           0.527633                       # miss rate for overall accesses
system.l2.ReadExReq_avg_miss_latency::cpu.data 80706.535238                       # average ReadExReq miss latency
system.l2.ReadExReq_avg_miss_latency::total 80706.535238                       # average ReadExReq miss latency
system.l2.ReadCleanReq_avg_miss_latency::cpu.inst 169466.197183                       # average ReadCleanReq miss latency
system.l2.ReadCleanReq_avg_miss_latency::total 169466.197183                       # average ReadCleanReq miss latency
system.l2.ReadSharedReq_avg_miss_latency::cpu.data 41173.921806                       # average ReadSharedReq miss latency
system.l2.ReadSharedReq_avg_miss_latency::total 41173.921806                       # average ReadSharedReq miss latency
system.l2.demand_avg_miss_latency::cpu.inst 169466.197183                       # average overall miss latency
system.l2.demand_avg_miss_latency::cpu.data 51870.259146                       # average overall miss latency
system.l2.demand_avg_miss_latency::total 53597.893561                       # average overall miss latency
system.l2.overall_avg_miss_latency::cpu.inst 169466.197183                       # average overall miss latency
system.l2.overall_avg_miss_latency::cpu.data 51870.259146                       # average overall miss latency
system.l2.overall_avg_miss_latency::total 53597.893561                       # average overall miss latency
system.l2.blocked_cycles::no_mshrs                  0                       # number of cycles access was blocked
system.l2.blocked_cycles::no_targets                0                       # number of cycles access was blocked
system.l2.blocked::no_mshrs                         0                       # number of cycles access was blocked
system.l2.blocked::no_targets                       0                       # number of cycles access was blocked
system.l2.avg_blocked_cycles::no_mshrs            nan                       # average number of cycles each access was blocked
system.l2.avg_blocked_cycles::no_targets          nan                       # average number of cycles each access was blocked
system.l2.writebacks::writebacks                21731                       # number of writebacks
system.l2.writebacks::total                     21731                       # number of writebacks
system.l2.ReadExReq_mshr_misses::cpu.data         6442                       # number of ReadExReq MSHR misses
system.l2.ReadExReq_mshr_misses::total           6442                       # number of ReadExReq MSHR misses
system.l2.ReadCleanReq_mshr_misses::cpu.inst          355                       # number of ReadCleanReq MSHR misses
system.l2.ReadCleanReq_mshr_misses::total          355                       # number of ReadCleanReq MSHR misses
system.l2.ReadSharedReq_mshr_misses::cpu.data        17367                       # number of ReadSharedReq MSHR misses
system.l2.ReadSharedReq_mshr_misses::total        17367                       # number of ReadSharedReq MSHR misses
system.l2.demand_mshr_misses::cpu.inst            355                       # number of demand (read+write) MSHR misses
system.l2.demand_mshr_misses::cpu.data          23809                       # number of demand (read+write) MSHR misses
system.l2.demand_mshr_misses::total             24164                       # number of demand (read+write) MSHR misses
system.l2.overall_mshr_misses::cpu.inst           355                       # number of overall MSHR misses
system.l2.overall_mshr_misses::cpu.data         23809                       # number of overall MSHR misses
system.l2.overall_mshr_misses::total            24164                       # number of overall MSHR misses
system.l2.ReadExReq_mshr_miss_latency::cpu.data    455491500                       # number of ReadExReq MSHR miss cycles
system.l2.ReadExReq_mshr_miss_latency::total    455491500                       # number of ReadExReq MSHR miss cycles
system.l2.ReadCleanReq_mshr_miss_latency::cpu.inst     56610500                       # number of ReadCleanReq MSHR miss cycles
system.l2.ReadCleanReq_mshr_miss_latency::total     56610500                       # number of ReadCleanReq MSHR miss cycles
system.l2.ReadSharedReq_mshr_miss_latency::cpu.data    541397500                       # number of ReadSharedReq MSHR miss cycles
system.l2.ReadSharedReq_mshr_miss_latency::total    541397500                       # number of ReadSharedReq MSHR miss cycles
system.l2.demand_mshr_miss_latency::cpu.inst     56610500                       # number of demand (read+write) MSHR miss cycles
system.l2.demand_mshr_miss_latency::cpu.data    996889000                       # number of demand (read+write) MSHR miss cycles
system.l2.demand_mshr_miss_latency::total   1053499500                       # number of demand (read+write) MSHR miss cycles
system.l2.overall_mshr_miss_latency::cpu.inst     56610500                       # number of overall MSHR miss cycles
system.l2.overall_mshr_miss_latency::cpu.data    996889000                       # number of overall MSHR miss cycles
system.l2.overall_mshr_miss_latency::total   1053499500                       # number of overall MSHR miss cycles
system.l2.ReadExReq_mshr_miss_rate::cpu.data     0.961062                       # mshr miss rate for ReadExReq accesses
system.l2.ReadExReq_mshr_miss_rate::total     0.961062                       # mshr miss rate for ReadExReq accesses
system.l2.ReadCleanReq_mshr_miss_rate::cpu.inst            1                       # mshr miss rate for ReadCleanReq accesses
system.l2.ReadCleanReq_mshr_miss_rate::total            1                       # mshr miss rate for ReadCleanReq accesses
system.l2.ReadSharedReq_mshr_miss_rate::cpu.data     0.448308                       # mshr miss rate for ReadSharedReq accesses
system.l2.ReadSharedReq_mshr_miss_rate::total     0.448308                       # mshr miss rate for ReadSharedReq accesses
system.l2.demand_mshr_miss_rate::cpu.inst            1                       # mshr miss rate for demand accesses
system.l2.demand_mshr_miss_rate::cpu.data     0.523943                       # mshr miss rate for demand accesses
system.l2.demand_mshr_miss_rate::total       0.527633                       # mshr miss rate for demand accesses
system.l2.overall_mshr_miss_rate::cpu.inst            1                       # mshr miss rate for overall accesses
system.l2.overall_mshr_miss_rate::cpu.data     0.523943                       # mshr miss rate for overall accesses
system.l2.overall_mshr_miss_rate::total      0.527633                       # mshr miss rate for overall accesses
system.l2.ReadExReq_avg_mshr_miss_latency::cpu.data 70706.535238                       # average ReadExReq mshr miss latency
system.l2.ReadExReq_avg_mshr_miss_latency::total 70706.535238                       # average ReadExReq mshr miss latency
system.l2.ReadCleanReq_avg_mshr_miss_latency::cpu.inst 159466.197183                       # average ReadCleanReq mshr miss latency
system.l2.ReadCleanReq_avg_mshr_miss_latency::total 159466.197183                       # average ReadCleanReq mshr miss latency
system.l2.ReadSharedReq_avg_mshr_miss_latency::cpu.data 31173.921806                       # average ReadSharedReq mshr miss latency
system.l2.ReadSharedReq_avg_mshr_miss_latency::total 31173.921806                       # average ReadSharedReq mshr miss latency
system.l2.demand_avg_mshr_miss_latency::cpu.inst 159466.197183                       # average overall mshr miss latency
system.l2.demand_avg_mshr_miss_latency::cpu.data 41870.259146                       # average overall mshr miss latency
system.l2.demand_avg_mshr_miss_latency::total 43597.893561                       # average overall mshr miss latency
system.l2.overall_avg_mshr_miss_latency::cpu.inst 159466.197183                       # average overall mshr miss latency
system.l2.overall_avg_mshr_miss_latency::cpu.data 41870.259146                       # average overall mshr miss latency
system.l2.overall_avg_mshr_miss_latency::total 43597.893561                       # average overall mshr miss latency
system.l2.replacements                          22138                       # number of replacements
system.l3.tags.pwrStateResidencyTicks::UNDEFINED  87987922000                       # Cumulative time (in ticks) in various power states
system.l3.tags.tagsinuse                  5975.850436                       # Cycle average of tags in use
system.l3.tags.total_refs                       46003                       # Total number of references to valid blocks.
system.l3.tags.sampled_refs                      7516                       # Sample count of references to valid blocks.
system.l3.tags.avg_refs                      6.120676                       # Average number of references to valid blocks.
system.l3.tags.warmup_cycle                    418000                       # Cycle when the warmup percentage was hit.
system.l3.tags.occ_blocks::writebacks        4.640798                       # Average occupied blocks per requestor
system.l3.tags.occ_blocks::cpu.inst        212.941071                       # Average occupied blocks per requestor
system.l3.tags.occ_blocks::cpu.data       5758.268567                       # Average occupied blocks per requestor
system.l3.tags.occ_percent::writebacks       0.000567                       # Average percentage of cache occupancy
system.l3.tags.occ_percent::cpu.inst         0.025994                       # Average percentage of cache occupancy
system.l3.tags.occ_percent::cpu.data         0.702914                       # Average percentage of cache occupancy
system.l3.tags.occ_percent::total            0.729474                       # Average percentage of cache occupancy
system.l3.tags.occ_task_id_blocks::1024          6411                       # Occupied blocks per task id
system.l3.tags.age_task_id_blocks_1024::0           30                       # Occupied blocks per task id
system.l3.tags.age_task_id_blocks_1024::1           32                       # Occupied blocks per task id
system.l3.tags.age_task_id_blocks_1024::3            1                       # Occupied blocks per task id
system.l3.tags.age_task_id_blocks_1024::4         6348                       # Occupied blocks per task id
system.l3.tags.occ_task_id_percent::1024     0.782593                       # Percentage of cache occupancy per task id
system.l3.tags.tag_accesses                     99530                       # Number of tag accesses
system.l3.tags.data_accesses                    99530                       # Number of data accesses
system.l3.pwrStateResidencyTicks::UNDEFINED  87987922000                       # Cumulative time (in ticks) in various power states
system.l3.WritebackDirty_hits::writebacks        21731                       # number of WritebackDirty hits
system.l3.WritebackDirty_hits::total            21731                       # number of WritebackDirty hits
system.l3.ReadExReq_hits::cpu.data                 44                       # number of ReadExReq hits
system.l3.ReadExReq_hits::total                    44                       # number of ReadExReq hits
system.l3.ReadSharedReq_hits::cpu.data          16732                       # number of ReadSharedReq hits
system.l3.ReadSharedReq_hits::total             16732                       # number of ReadSharedReq hits
system.l3.demand_hits::cpu.data                 16776                       # number of demand (read+write) hits
system.l3.demand_hits::total                    16776                       # number of demand (read+write) hits
system.l3.overall_hits::cpu.data                16776                       # number of overall hits
system.l3.overall_hits::total                   16776                       # number of overall hits
system.l3.ReadExReq_misses::cpu.data             6398                       # number of ReadExReq misses
system.l3.ReadExReq_misses::total                6398                       # number of ReadExReq misses
system.l3.ReadSharedReq_misses::cpu.inst          355                       # number of ReadSharedReq misses
system.l3.ReadSharedReq_misses::cpu.data          635                       # number of ReadSharedReq misses
system.l3.ReadSharedReq_misses::total             990                       # number of ReadSharedReq misses
system.l3.demand_misses::cpu.inst                 355                       # number of demand (read+write) misses
system.l3.demand_misses::cpu.data                7033                       # number of demand (read+write) misses
system.l3.demand_misses::total                   7388                       # number of demand (read+write) misses
system.l3.overall_misses::cpu.inst                355                       # number of overall misses
system.l3.overall_misses::cpu.data               7033                       # number of overall misses
system.l3.overall_misses::total                  7388                       # number of overall misses
system.l3.ReadExReq_miss_latency::cpu.data    384167500                       # number of ReadExReq miss cycles
system.l3.ReadExReq_miss_latency::total     384167500                       # number of ReadExReq miss cycles
system.l3.ReadSharedReq_miss_latency::cpu.inst     52705500                       # number of ReadSharedReq miss cycles
system.l3.ReadSharedReq_miss_latency::cpu.data    174674500                       # number of ReadSharedReq miss cycles
system.l3.ReadSharedReq_miss_latency::total    227380000                       # number of ReadSharedReq miss cycles
system.l3.demand_miss_latency::cpu.inst      52705500                       # number of demand (read+write) miss cycles
system.l3.demand_miss_latency::cpu.data     558842000                       # number of demand (read+write) miss cycles
system.l3.demand_miss_latency::total        611547500                       # number of demand (read+write) miss cycles
system.l3.overall_miss_latency::cpu.inst     52705500                       # number of overall miss cycles
system.l3.overall_miss_latency::cpu.data    558842000                       # number of overall miss cycles
system.l3.overall_miss_latency::total       611547500                       # number of overall miss cycles
system.l3.WritebackDirty_accesses::writebacks        21731                       # number of WritebackDirty accesses(hits+misses)
system.l3.WritebackDirty_accesses::total        21731                       # number of WritebackDirty accesses(hits+misses)
system.l3.ReadExReq_accesses::cpu.data           6442                       # number of ReadExReq accesses(hits+misses)
system.l3.ReadExReq_accesses::total              6442                       # number of ReadExReq accesses(hits+misses)
system.l3.ReadSharedReq_accesses::cpu.inst          355                       # number of ReadSharedReq accesses(hits+misses)
system.l3.ReadSharedReq_accesses::cpu.data        17367                       # number of ReadSharedReq accesses(hits+misses)
system.l3.ReadSharedReq_accesses::total         17722                       # number of ReadSharedReq accesses(hits+misses)
system.l3.demand_accesses::cpu.inst               355                       # number of demand (read+write) accesses
system.l3.demand_accesses::cpu.data             23809                       # number of demand (read+write) accesses
system.l3.demand_accesses::total                24164                       # number of demand (read+write) accesses
system.l3.overall_accesses::cpu.inst              355                       # number of overall (read+write) accesses
system.l3.overall_accesses::cpu.data            23809                       # number of overall (read+write) accesses
system.l3.overall_accesses::total               24164                       # number of overall (read+write) accesses
system.l3.ReadExReq_miss_rate::cpu.data      0.993170                       # miss rate for ReadExReq accesses
system.l3.ReadExReq_miss_rate::total         0.993170                       # miss rate for ReadExReq accesses
system.l3.ReadSharedReq_miss_rate::cpu.inst            1                       # miss rate for ReadSharedReq accesses
system.l3.ReadSharedReq_miss_rate::cpu.data     0.036564                       # miss rate for ReadSharedReq accesses
system.l3.ReadSharedReq_miss_rate::total     0.055863                       # miss rate for ReadSharedReq accesses
system.l3.demand_miss_rate::cpu.inst                1                       # miss rate for demand accesses
system.l3.demand_miss_rate::cpu.data         0.295392                       # miss rate for demand accesses
system.l3.demand_miss_rate::total            0.305744                       # miss rate for demand accesses
system.l3.overall_miss_rate::cpu.inst               1                       # miss rate for overall accesses
system.l3.overall_miss_rate::cpu.data        0.295392                       # miss rate for overall accesses
system.l3.overall_miss_rate::total           0.305744                       # miss rate for overall accesses
system.l3.ReadExReq_avg_miss_latency::cpu.data 60044.935917                       # average ReadExReq miss latency
system.l3.ReadExReq_avg_miss_latency::total 60044.935917                       # average ReadExReq miss latency
system.l3.ReadSharedReq_avg_miss_latency::cpu.inst 148466.197183                       # average ReadSharedReq miss latency
system.l3.ReadSharedReq_avg_miss_latency::cpu.data 275077.952756                       # average ReadSharedReq miss latency
system.l3.ReadSharedReq_avg_miss_latency::total 229676.767677                       # average ReadSharedReq miss latency
system.l3.demand_avg_miss_latency::cpu.inst 148466.197183                       # average overall miss latency
system.l3.demand_avg_miss_latency::cpu.data 79459.974406                       # average overall miss latency
system.l3.demand_avg_miss_latency::total 82775.785057                       # average overall miss latency
system.l3.overall_avg_miss_latency::cpu.inst 148466.197183                       # average overall miss latency
system.l3.overall_avg_miss_latency::cpu.data 79459.974406                       # average overall miss latency
system.l3.overall_avg_miss_latency::total 82775.785057                       # average overall miss latency
system.l3.blocked_cycles::no_mshrs                  0                       # number of cycles access was blocked
system.l3.blocked_cycles::no_targets                0                       # number of cycles access was blocked
system.l3.blocked::no_mshrs                         0                       # number of cycles access was blocked
system.l3.blocked::no_targets                       0                       # number of cycles access was blocked
system.l3.avg_blocked_cycles::no_mshrs            nan                       # average number of cycles each access was blocked
system.l3.avg_blocked_cycles::no_targets          nan                       # average number of cycles each access was blocked
system.l3.writebacks::writebacks                  808                       # number of writebacks
system.l3.writebacks::total                       808                       # number of writebacks
system.l3.CleanEvict_mshr_misses::writebacks            4                       # number of CleanEvict MSHR misses
system.l3.CleanEvict_mshr_misses::total             4                       # number of CleanEvict MSHR misses
system.l3.ReadExReq_mshr_misses::cpu.data         6398                       # number of ReadExReq MSHR misses
system.l3.ReadExReq_mshr_misses::total           6398                       # number of ReadExReq MSHR misses
system.l3.ReadSharedReq_mshr_misses::cpu.inst          355                       # number of ReadSharedReq MSHR misses
system.l3.ReadSharedReq_mshr_misses::cpu.data          635                       # number of ReadSharedReq MSHR misses
system.l3.ReadSharedReq_mshr_misses::total          990                       # number of ReadSharedReq MSHR misses
system.l3.demand_mshr_misses::cpu.inst            355                       # number of demand (read+write) MSHR misses
system.l3.demand_mshr_misses::cpu.data           7033                       # number of demand (read+write) MSHR misses
system.l3.demand_mshr_misses::total              7388                       # number of demand (read+write) MSHR misses
system.l3.overall_mshr_misses::cpu.inst           355                       # number of overall MSHR misses
system.l3.overall_mshr_misses::cpu.data          7033                       # number of overall MSHR misses
system.l3.overall_mshr_misses::total             7388                       # number of overall MSHR misses
system.l3.ReadExReq_mshr_miss_latency::cpu.data    320187500                       # number of ReadExReq MSHR miss cycles
system.l3.ReadExReq_mshr_miss_latency::total    320187500                       # number of ReadExReq MSHR miss cycles
system.l3.ReadSharedReq_mshr_miss_latency::cpu.inst     49155500                       # number of ReadSharedReq MSHR miss cycles
system.l3.ReadSharedReq_mshr_miss_latency::cpu.data    168324500                       # number of ReadSharedReq MSHR miss cycles
system.l3.ReadSharedReq_mshr_miss_latency::total    217480000                       # number of ReadSharedReq MSHR miss cycles
system.l3.demand_mshr_miss_latency::cpu.inst     49155500                       # number of demand (read+write) MSHR miss cycles
system.l3.demand_mshr_miss_latency::cpu.data    488512000                       # number of demand (read+write) MSHR miss cycles
system.l3.demand_mshr_miss_latency::total    537667500                       # number of demand (read+write) MSHR miss cycles
system.l3.overall_mshr_miss_latency::cpu.inst     49155500                       # number of overall MSHR miss cycles
system.l3.overall_mshr_miss_latency::cpu.data    488512000                       # number of overall MSHR miss cycles
system.l3.overall_mshr_miss_latency::total    537667500                       # number of overall MSHR miss cycles
system.l3.CleanEvict_mshr_miss_rate::writebacks          inf                       # mshr miss rate for CleanEvict accesses
system.l3.CleanEvict_mshr_miss_rate::total          inf                       # mshr miss rate for CleanEvict accesses
system.l3.ReadExReq_mshr_miss_rate::cpu.data     0.993170                       # mshr miss rate for ReadExReq accesses
system.l3.ReadExReq_mshr_miss_rate::total     0.993170                       # mshr miss rate for ReadExReq accesses
system.l3.ReadSharedReq_mshr_miss_rate::cpu.inst            1                       # mshr miss rate for ReadSharedReq accesses
system.l3.ReadSharedReq_mshr_miss_rate::cpu.data     0.036564                       # mshr miss rate for ReadSharedReq accesses
system.l3.ReadSharedReq_mshr_miss_rate::total     0.055863                       # mshr miss rate for ReadSharedReq accesses
system.l3.demand_mshr_miss_rate::cpu.inst            1                       # mshr miss rate for demand accesses
system.l3.demand_mshr_miss_rate::cpu.data     0.295392                       # mshr miss rate for demand accesses
system.l3.demand_mshr_miss_rate::total       0.305744                       # mshr miss rate for demand accesses
system.l3.overall_mshr_miss_rate::cpu.inst            1                       # mshr miss rate for overall accesses
system.l3.overall_mshr_miss_rate::cpu.data     0.295392                       # mshr miss rate for overall accesses
system.l3.overall_mshr_miss_rate::total      0.305744                       # mshr miss rate for overall accesses
system.l3.ReadExReq_avg_mshr_miss_latency::cpu.data 50044.935917                       # average ReadExReq mshr miss latency
system.l3.ReadExReq_avg_mshr_miss_latency::total 50044.935917                       # average ReadExReq mshr miss latency
system.l3.ReadSharedReq_avg_mshr_miss_latency::cpu.inst 138466.197183                       # average ReadSharedReq mshr miss latency
system.l3.ReadSharedReq_avg_mshr_miss_latency::cpu.data 265077.952756                       # average ReadSharedReq mshr miss latency
system.l3.ReadSharedReq_avg_mshr_miss_latency::total 219676.767677                       # average ReadSharedReq mshr miss latency
system.l3.demand_avg_mshr_miss_latency::cpu.inst 138466.197183                       # average overall mshr miss latency
system.l3.demand_avg_mshr_miss_latency::cpu.data 69459.974406                       # average overall mshr miss latency
system.l3.demand_avg_mshr_miss_latency::total 72775.785057                       # average overall mshr miss latency
system.l3.overall_avg_mshr_miss_latency::cpu.inst 138466.197183                       # average overall mshr miss latency
system.l3.overall_avg_mshr_miss_latency::cpu.data 69459.974406                       # average overall mshr miss latency
system.l3.overall_avg_mshr_miss_latency::total 72775.785057                       # average overall mshr miss latency
system.l3.replacements                           1105                       # number of replacements
system.membus.snoop_filter.tot_requests          8356                       # Total number of requests made to the snoop filter.
system.membus.snoop_filter.hit_single_requests          968                       # Number of requests hitting in the snoop filter with a single holder of the requested data.
system.membus.snoop_filter.hit_multi_requests            0                       # Number of requests hitting in the snoop filter with multiple (>1) holders of the requested data.
system.membus.snoop_filter.tot_snoops               0                       # Total number of snoops made to the snoop filter.
system.membus.snoop_filter.hit_single_snoops            0                       # Number of snoops hitting in the snoop filter with a single holder of the requested data.
system.membus.snoop_filter.hit_multi_snoops            0                       # Number of snoops hitting in the snoop filter with multiple (>1) holders of the requested data.
system.membus.pwrStateResidencyTicks::UNDEFINED  87987922000                       # Cumulative time (in ticks) in various power states
system.membus.trans_dist::ReadResp                990                       # Transaction distribution
system.membus.trans_dist::WritebackDirty          808                       # Transaction distribution
system.membus.trans_dist::CleanEvict               68                       # Transaction distribution
system.membus.trans_dist::ReadExReq              6398                       # Transaction distribution
system.membus.trans_dist::ReadExResp             6398                       # Transaction distribution
system.membus.trans_dist::ReadSharedReq           990                       # Transaction distribution
system.membus.pkt_count_system.l3.mem_side::system.mem_ctrls.port        15652                       # Packet count per connected master and slave (bytes)
system.membus.pkt_count_system.l3.mem_side::total        15652                       # Packet count per connected master and slave (bytes)
system.membus.pkt_count::total                  15652                       # Packet count per connected master and slave (bytes)
system.membus.pkt_size_system.l3.mem_side::system.mem_ctrls.port       524544                       # Cumulative packet size per connected master and slave (bytes)
system.membus.pkt_size_system.l3.mem_side::total       524544                       # Cumulative packet size per connected master and slave (bytes)
system.membus.pkt_size::total                  524544                       # Cumulative packet size per connected master and slave (bytes)
system.membus.snoops                                0                       # Total snoops (count)
system.membus.snoopTraffic                          0                       # Total snoop traffic (bytes)
system.membus.snoop_fanout::samples              7388                       # Request fanout histogram
system.membus.snoop_fanout::mean                    0                       # Request fanout histogram
system.membus.snoop_fanout::stdev                   0                       # Request fanout histogram
system.membus.snoop_fanout::underflows              0      0.00%      0.00% # Request fanout histogram
system.membus.snoop_fanout::0                    7388    100.00%    100.00% # Request fanout histogram
system.membus.snoop_fanout::1                       0      0.00%    100.00% # Request fanout histogram
system.membus.snoop_fanout::overflows               0      0.00%    100.00% # Request fanout histogram
system.membus.snoop_fanout::min_value               0                       # Request fanout histogram
system.membus.snoop_fanout::max_value               0                       # Request fanout histogram
system.membus.snoop_fanout::total                7388                       # Request fanout histogram
system.membus.reqLayer2.occupancy            11591500                       # Layer occupancy (ticks)
system.membus.reqLayer2.utilization               0.0                       # Layer utilization (%)
system.membus.respLayer1.occupancy           36943500                       # Layer occupancy (ticks)
system.membus.respLayer1.utilization              0.0                       # Layer utilization (%)
system.tol2bus.snoop_filter.tot_requests       106251                       # Total number of requests made to the snoop filter.
system.tol2bus.snoop_filter.hit_single_requests        60454                       # Number of requests hitting in the snoop filter with a single holder of the requested data.
system.tol2bus.snoop_filter.hit_multi_requests            0                       # Number of requests hitting in the snoop filter with multiple (>1) holders of the requested data.
system.tol2bus.snoop_filter.tot_snoops            482                       # Total number of snoops made to the snoop filter.
system.tol2bus.snoop_filter.hit_single_snoops          482                       # Number of snoops hitting in the snoop filter with a single holder of the requested data.
system.tol2bus.snoop_filter.hit_multi_snoops            0                       # Number of snoops hitting in the snoop filter with multiple (>1) holders of the requested data.
system.tol2bus.pwrStateResidencyTicks::UNDEFINED  87987922000                       # Cumulative time (in ticks) in various power states
system.tol2bus.trans_dist::ReadResp             39094                       # Transaction distribution
system.tol2bus.trans_dist::WritebackDirty        66145                       # Transaction distribution
system.tol2bus.trans_dist::WritebackClean           44                       # Transaction distribution
system.tol2bus.trans_dist::CleanEvict            2028                       # Transaction distribution
system.tol2bus.trans_dist::UpgradeReq           15480                       # Transaction distribution
system.tol2bus.trans_dist::UpgradeResp          15480                       # Transaction distribution
system.tol2bus.trans_dist::ReadExReq             6703                       # Transaction distribution
system.tol2bus.trans_dist::ReadExResp            6703                       # Transaction distribution
system.tol2bus.trans_dist::ReadCleanReq           355                       # Transaction distribution
system.tol2bus.trans_dist::ReadSharedReq        38739                       # Transaction distribution
system.tol2bus.pkt_count_system.cpu.icache.mem_side::system.l2.cpu_side          754                       # Packet count per connected master and slave (bytes)
system.tol2bus.pkt_count_system.cpu.dcache.mem_side::system.l2.cpu_side       166774                       # Packet count per connected master and slave (bytes)
system.tol2bus.pkt_count::total                167528                       # Packet count per connected master and slave (bytes)
system.tol2bus.pkt_size_system.cpu.icache.mem_side::system.l2.cpu_side        25536                       # Cumulative packet size per connected master and slave (bytes)
system.tol2bus.pkt_size_system.cpu.dcache.mem_side::system.l2.cpu_side      5699072                       # Cumulative packet size per connected master and slave (bytes)
system.tol2bus.pkt_size::total                5724608                       # Cumulative packet size per connected master and slave (bytes)
system.tol2bus.snoops                           23243                       # Total snoops (count)
system.tol2bus.snoopTraffic                   1442496                       # Total snoop traffic (bytes)
system.tol2bus.snoop_fanout::samples            84520                       # Request fanout histogram
system.tol2bus.snoop_fanout::mean            0.005703                       # Request fanout histogram
system.tol2bus.snoop_fanout::stdev           0.075302                       # Request fanout histogram
system.tol2bus.snoop_fanout::underflows             0      0.00%      0.00% # Request fanout histogram
system.tol2bus.snoop_fanout::0                  84038     99.43%     99.43% # Request fanout histogram
system.tol2bus.snoop_fanout::1                    482      0.57%    100.00% # Request fanout histogram
system.tol2bus.snoop_fanout::2                      0      0.00%    100.00% # Request fanout histogram
system.tol2bus.snoop_fanout::3                      0      0.00%    100.00% # Request fanout histogram
system.tol2bus.snoop_fanout::4                      0      0.00%    100.00% # Request fanout histogram
system.tol2bus.snoop_fanout::overflows              0      0.00%    100.00% # Request fanout histogram
system.tol2bus.snoop_fanout::min_value              0                       # Request fanout histogram
system.tol2bus.snoop_fanout::max_value              1                       # Request fanout histogram
system.tol2bus.snoop_fanout::total              84520                       # Request fanout histogram
system.tol2bus.reqLayer0.occupancy           96775500                       # Layer occupancy (ticks)
system.tol2bus.reqLayer0.utilization              0.1                       # Layer utilization (%)
system.tol2bus.respLayer0.occupancy            532500                       # Layer occupancy (ticks)
system.tol2bus.respLayer0.utilization             0.0                       # Layer utilization (%)
system.tol2bus.respLayer1.occupancy          75903000                       # Layer occupancy (ticks)
system.tol2bus.respLayer1.utilization             0.1                       # Layer utilization (%)
system.tol3bus.pwrStateResidencyTicks::UNDEFINED  87987922000                       # Cumulative time (in ticks) in various power states
system.tol3bus.trans_dist::ReadResp             17722                       # Transaction distribution
system.tol3bus.trans_dist::WritebackDirty        22539                       # Transaction distribution
system.tol3bus.trans_dist::CleanEvict             409                       # Transaction distribution
system.tol3bus.trans_dist::ReadExReq             6442                       # Transaction distribution
system.tol3bus.trans_dist::ReadExResp            6442                       # Transaction distribution
system.tol3bus.trans_dist::ReadSharedReq        17722                       # Transaction distribution
system.tol3bus.pkt_count_system.l2.mem_side::system.l3.cpu_side        70171                       # Packet count per connected master and slave (bytes)
system.tol3bus.pkt_size_system.l2.mem_side::system.l3.cpu_side      2937280                       # Cumulative packet size per connected master and slave (bytes)
system.tol3bus.snoops                            1105                       # Total snoops (count)
system.tol3bus.snoopTraffic                     51712                       # Total snoop traffic (bytes)
system.tol3bus.snoop_fanout::samples            47112                       # Request fanout histogram
system.tol3bus.snoop_fanout::mean            0.023455                       # Request fanout histogram
system.tol3bus.snoop_fanout::stdev           0.151344                       # Request fanout histogram
system.tol3bus.snoop_fanout::underflows             0      0.00%      0.00% # Request fanout histogram
system.tol3bus.snoop_fanout::0                  46007     97.65%     97.65% # Request fanout histogram
system.tol3bus.snoop_fanout::1                   1105      2.35%    100.00% # Request fanout histogram
system.tol3bus.snoop_fanout::overflows              0      0.00%    100.00% # Request fanout histogram
system.tol3bus.snoop_fanout::min_value              0                       # Request fanout histogram
system.tol3bus.snoop_fanout::max_value              1                       # Request fanout histogram
system.tol3bus.snoop_fanout::total              47112                       # Request fanout histogram
system.tol3bus.reqLayer0.occupancy           44734500                       # Layer occupancy (ticks)
system.tol3bus.reqLayer0.utilization              0.1                       # Layer utilization (%)
system.tol3bus.respLayer0.occupancy          36246000                       # Layer occupancy (ticks)
system.tol3bus.respLayer0.utilization             0.0                       # Layer utilization (%)

---------- End Simulation Statistics   ----------
